@<TRIPOS>MOLECULE
THF
   13    13     1     0     0
SMALL
bcc


@<TRIPOS>ATOM
      1 O          -0.4340    1.4180   -0.2260 os        0 THF     -0.427600
      2 C           0.0770    0.2740    0.4650 c3        0 THF      0.127400
      3 C1          1.5060    0.6440    0.8970 c3        0 THF     -0.106400
      4 C2          1.9070    1.7700   -0.0710 c3        0 THF     -0.106400
      5 C3          0.6700    1.9440   -0.9680 c3        0 THF      0.127400
      6 H          -0.5520    0.0450    1.3270 h1        0 THF      0.044700
      7 H1          0.0850   -0.5930   -0.2050 h1        0 THF      0.044700
      8 H2          1.5110    1.0070    1.9290 hc        0 THF      0.051700
      9 H3          2.1770   -0.2160    0.8170 hc        0 THF      0.051700
     10 H4          2.7870    1.5010   -0.6620 hc        0 THF      0.051700
     11 H5          2.1130    2.6930    0.4800 hc        0 THF      0.051700
     12 H6          0.7870    1.3900   -1.9050 h1        0 THF      0.044700
     13 H7          0.4950    2.9960   -1.2030 h1        0 THF      0.044700
@<TRIPOS>BOND
     1    1    2 1   
     2    1    5 1   
     3    2    3 1   
     4    2    6 1   
     5    2    7 1   
     6    3    4 1   
     7    3    8 1   
     8    3    9 1   
     9    4    5 1   
    10    4   10 1   
    11    4   11 1   
    12    5   12 1   
    13    5   13 1   
@<TRIPOS>SUBSTRUCTURE
     1 THF         1 TEMP              0 ****  ****    0 ROOT
