@<TRIPOS>MOLECULE
ETH
    9     8     1     0     0
SMALL
bcc


@<TRIPOS>ATOM
      1 C           1.3140   -0.8420    0.1140 c3        0 ETH     -0.097100
      2 C1          0.5230    0.4740    0.0120 c3        0 ETH      0.131400
      3 O           1.4130    1.5830   -0.0470 oh        0 ETH     -0.602800
      4 H           1.9610   -0.9590   -0.7580 hc        0 ETH      0.044367
      5 H1          0.6240   -1.6870    0.1570 hc        0 ETH      0.044367
      6 H2          1.9290   -0.8420    1.0150 hc        0 ETH      0.044367
      7 H3         -0.1250    0.5850    0.8850 h1        0 ETH      0.018700
      8 H4         -0.0960    0.4660   -0.8870 h1        0 ETH      0.018700
      9 H5          0.8320    2.3700   -0.1100 ho        0 ETH      0.398000
@<TRIPOS>BOND
     1    1    2 1   
     2    1    4 1   
     3    1    5 1   
     4    1    6 1   
     5    2    3 1   
     6    2    7 1   
     7    2    8 1   
     8    3    9 1   
@<TRIPOS>SUBSTRUCTURE
     1 ETH         1 TEMP              0 ****  ****    0 ROOT
