@<TRIPOS>MOLECULE
DIE
   15    14     1     0     0
SMALL
bcc


@<TRIPOS>ATOM
      1 C           2.5600   -1.3630   -3.2500 c3        0 DIE     -0.096100
      2 C1          1.6430   -0.7150   -2.1960 c3        0 DIE      0.130400
      3 O           2.2920   -0.7590   -0.9110 os        0 DIE     -0.426600
      4 C2          1.5230   -0.1840    0.1620 c3        0 DIE      0.130400
      5 C3          2.3170   -0.3030    1.4750 c3        0 DIE     -0.096100
      6 H           3.5060   -0.8220   -3.3100 hc        0 DIE      0.044700
      7 H1          2.7620   -2.4020   -2.9830 hc        0 DIE      0.044700
      8 H2          2.0770   -1.3390   -4.2290 hc        0 DIE      0.044700
      9 H3          1.4450    0.3200   -2.4910 h1        0 DIE      0.022700
     10 H4          0.6970   -1.2640   -2.1680 h1        0 DIE      0.022700
     11 H5          0.5710   -0.7110    0.2790 h1        0 DIE      0.022700
     12 H6          1.3230    0.8740   -0.0340 h1        0 DIE      0.022700
     13 H7          1.7450    0.1300    2.2980 hc        0 DIE      0.044700
     14 H8          3.2670    0.2290    1.3900 hc        0 DIE      0.044700
     15 H9          2.5170   -1.3520    1.6990 hc        0 DIE      0.044700
@<TRIPOS>BOND
     1    1    2 1   
     2    1    6 1   
     3    1    7 1   
     4    1    8 1   
     5    2    3 1   
     6    2    9 1   
     7    2   10 1   
     8    3    4 1   
     9    4    5 1   
    10    4   11 1   
    11    4   12 1   
    12    5   13 1   
    13    5   14 1   
    14    5   15 1   
@<TRIPOS>SUBSTRUCTURE
     1 DIE         1 TEMP              0 ****  ****    0 ROOT
