@<TRIPOS>MOLECULE
MTH
    6     5     1     0     0
SMALL
bcc


@<TRIPOS>ATOM
      1 C           1.3650    0.1040   -0.2060 c3        0 MTH      0.116700
      2 O           0.0110   -0.0300    0.2030 oh        0 MTH     -0.598800
      3 H           1.5520    1.1320   -0.5180 h1        0 MTH      0.028700
      4 H1          1.5600   -0.5690   -1.0400 h1        0 MTH      0.028700
      5 H2          2.0240   -0.1490    0.6250 h1        0 MTH      0.028700
      6 H3         -0.0900    0.5980    0.9490 ho        0 MTH      0.396000
@<TRIPOS>BOND
     1    1    2 1   
     2    1    3 1   
     3    1    4 1   
     4    1    5 1   
     5    2    6 1   
@<TRIPOS>SUBSTRUCTURE
     1 MTH         1 TEMP              0 ****  ****    0 ROOT
