@<TRIPOS>MOLECULE
1BT
   15    14     1     0     0
SMALL
bcc


@<TRIPOS>ATOM
      1 C           3.7520    0.3640   -1.5710 c3        0 1BT     -0.092100
      2 C1          3.4100    1.2000   -0.3180 c3        0 1BT     -0.079400
      3 C2          1.8870    1.4460   -0.1560 c3        0 1BT     -0.084400
      4 C3          1.5480    2.2790    1.1010 c3        0 1BT      0.131400
      5 O           0.1410    2.4720    1.1980 oh        0 1BT     -0.601800
      6 H           3.2750   -0.6170   -1.5160 hc        0 1BT      0.034367
      7 H1          4.8320    0.2220   -1.6370 hc        0 1BT      0.034367
      8 H2          3.4130    0.8750   -2.4740 hc        0 1BT      0.034367
      9 H3          3.7890    0.6760    0.5640 hc        0 1BT      0.037700
     10 H4          3.9270    2.1610   -0.3900 hc        0 1BT      0.037700
     11 H5          1.3710    0.4840   -0.0880 hc        0 1BT      0.055700
     12 H6          1.5100    1.9730   -1.0380 hc        0 1BT      0.055700
     13 H7          2.0310    3.2570    1.0480 h1        0 1BT      0.019700
     14 H8          1.8920    1.7620    2.0000 h1        0 1BT      0.019700
     15 H9          0.0160    3.0020    2.0140 ho        0 1BT      0.398000
@<TRIPOS>BOND
     1    1    2 1   
     2    1    6 1   
     3    1    7 1   
     4    1    8 1   
     5    2    3 1   
     6    2    9 1   
     7    2   10 1   
     8    3    4 1   
     9    3   11 1   
    10    3   12 1   
    11    4    5 1   
    12    4   13 1   
    13    4   14 1   
    14    5   15 1   
@<TRIPOS>SUBSTRUCTURE
     1 1BT         1 TEMP              0 ****  ****    0 ROOT
